CRYSTAL
PRIMVEC 1
      3.0642754440       0.0000000000       0.0000000000
     -1.5321377220       2.6537403788       0.0000000000
      0.0000000000       0.0000000000       3.4935180501
PRIMCOORD 1
3 1
12       0.0000000000       0.0000000000       0.0000000000
5       0.0000000000       1.7691602525       1.7467590251
5       1.5321377220       0.8845801263       1.7467590251
